15

N         -1.71111        0.84895        0.00000
C         -2.41796       -0.26626        0.00000
N         -1.63918       -1.41283        0.00000
C         -0.31688       -0.99917        0.00000
C         -0.39679        0.41246        0.00000
C          0.85241        1.09544        0.00000
N          1.99056        0.36761        0.00000
N          0.79749       -1.74694        0.00000
C          1.89959       -0.97701        0.00000
N          0.93562        2.45189        0.00000
H         -1.95839       -2.38377        0.00000
H          0.08649        3.01623        0.00000
H          1.85824        2.88902        0.00000
H         -3.51662       -0.32063        0.00000
H          2.86548       -1.51673        0.00000
